THERMO ALL 
   200.000  1000.000  6000.000 
OH                BASICPH   1O   1          G   200.000  6000.000 1000.000     1
 2.83853033E+00 1.10741289E-03-2.94000209E-07 4.20698729E-11-2.42289890E-15    2
 3.94507818E+03 5.86265755E+00 3.99198424E+00-2.40106655E-03 4.61664033E-06    3
-3.87916306E-09 1.36319502E-12 3.61616847E+03-8.62874287E-02                   4
H                 BASICPH   1               G   200.000  6000.000 1000.000     1
 2.50000000E+00 0.00000000E+00 0.00000000E+00 0.00000000E+00 0.00000000E+00    2
 2.54898787E+04-4.36493643E-01 2.50000000E+00 0.00000000E+00 0.00000000E+00    3
 0.00000000E+00 0.00000000E+00 2.54898787E+04-4.36493643E-01                   4
O                 BASICPO   1               G   200.000  6000.000 1000.000     1
 2.54363697E+00-2.73162486E-05-4.19029520E-09 4.95481845E-12-4.79553694E-16    2
 2.92440551E+04 4.93314447E+00 3.16826710E+00-3.27931884E-03 6.64306394E-06    3
-6.12806626E-09 2.11265971E-12 2.91403023E+04 2.06278342E+00                   4
HO2               BASICPH   1O   2          G   200.000  5000.000 1000.000     1
 4.17228741E+00 1.88117627E-03-3.46277286E-07 1.94657549E-11 1.76256905E-16    2
 6.28274388E+01 2.97746335E+00 4.30179807E+00-4.74912097E-03 2.11582905E-05    3
-2.42763914E-08 9.29225227E-12 2.95825234E+02 3.73644880E+00                   4
HCO               BASICPH   1C   1O   1     G   200.000  6000.000 1000.000     1
 3.92001542E+00 2.52279324E-03-6.71004163E-07 1.05615948E-10-7.43798260E-15    2
 3.62163724E+03 3.60689894E+00 4.23754610E+00-3.32075257E-03 1.40030264E-05    3
-1.34239995E-08 4.37416208E-12 3.84061978E+03 3.33447700E+00                   4
CH3               BASICPH   3C   1          G   200.000  6000.000 1000.000     1
 2.97812060E+00 5.79785198E-03-1.97558000E-06 3.07297900E-10-1.79174160E-14    2
 1.65454203E+04 4.73863274E+00 3.65717970E+00 2.12659790E-03 5.45838829E-06    3
-6.61810031E-09 2.46570740E-12 1.64586234E+04 1.68968846E+00                   4
CH2               BASICPH   2C   1          G   200.000  6000.000 1000.000     1
 3.11049513E+00 3.73779517E-03-1.37371977E-06 2.23054839E-10-1.33567178E-14    2
 4.54496528E+04 4.60771073E+00 3.84261832E+00-7.36676870E-06 6.16970694E-06    3
-6.96689962E-09 2.64620979E-12 4.53412104E+04 1.25559135E+00                   4
H2                BASICPH   2               G   200.000  6000.000 1000.000     1
 2.93286575E+00 8.26608026E-04-1.46402364E-07 1.54100414E-11-6.88804798E-16    2
-8.13065579E+02-1.01550689E+00 2.34433112E+00 7.98052075E-03-1.94781510E-05    3
 2.01572094E-08-7.37611761E-12-9.17935179E+02 6.91831983E-01                   4
H2O               BASICPH   2O   1          G   200.000  6000.000 1000.000     1
 2.67703890E+00 2.97318160E-03-7.73768891E-07 9.44335142E-11-4.26899910E-15    2
-2.95037541E+04 6.89722747E+00 4.19863520E+00-2.03640170E-03 6.52034161E-06    3
-5.48792692E-09 1.77196800E-12-2.99115862E+04-8.34331775E-01                   4
H2O2              BASICPH   2O   2          G   200.000  6000.000 1000.000     1
 4.57977305E+00 4.05326003E-03-1.29844730E-06 1.98211400E-10-1.13968792E-14    2
-1.80201532E+04 6.80511573E-01 4.31515149E+00-8.47390622E-04 1.76404323E-05    3
-2.26762944E-08 9.08950159E-12-1.77197194E+04 3.28927407E+00                   4
CO                BASICPC   1O   1          G   200.000  6000.000 1000.000     1
 3.04848590E+00 1.35172810E-03-4.85794050E-07 7.88536438E-11-4.69807460E-15    2
-1.42764319E+04 6.03247947E+00 3.57953350E+00-6.10353690E-04 1.01681430E-06    3
 9.07005860E-10-9.04424492E-13-1.43544008E+04 3.52379109E+00                   4
CO2               BASICPC   1O   2          G   200.000  6000.000 1000.000     1
 4.63651110E+00 2.74145690E-03-9.95897592E-07 1.60386660E-10-9.16198572E-15    2
-4.90562155E+04-1.91576413E+00 2.35681300E+00 8.98412989E-03-7.12206322E-06    3
 2.45730080E-09-1.42885480E-13-4.84032826E+04 9.92003509E+00                   4
CH2O              BASICPH   2C   1O   1     G   200.000  6000.000 1000.000     1
 3.16952665E+00 6.19320562E-03-2.25056366E-06 3.65975660E-10-2.20149458E-14    2
-1.44866178E+04 6.06188715E+00 4.79372312E+00-9.90833322E-03 3.73219990E-05    3
-3.79285237E-08 1.31772641E-11-1.43171300E+04 6.22606250E-01                   4
CH3O              BASICPH   3C   1O   1     G   200.000  6000.000 1000.000     1
 4.75779238E+00 7.44142476E-03-2.69705176E-06 4.38090504E-10-2.63537098E-14    2
-1.88772877E+02-2.65987307E+00 3.71180502E+00-2.80463306E-03 3.76550971E-05    3
-4.73072089E-08 1.86588420E-11 7.28812812E+02 5.87933591E+00                   4
CH3OH             BASICPH   4C   1O   1     G   200.000  6000.000 1000.000     1
 3.52726795E+00 1.03178783E-02-3.62892944E-06 5.77448015E-10-3.42182632E-14    2
-2.60140596E+04 5.08732209E+00 5.65851051E+00-1.62983419E-02 6.91938158E-05    3
-7.58372926E-08 2.80427550E-11-2.56231500E+04-9.77595447E-01                   4
CH3CO             BASICPH   3C   2O   1     G   200.000  6000.000 1000.000     1
 5.31371648E+00 9.17377930E-03-3.32203860E-06 5.39474560E-10-3.24523680E-14    2
-4.42046045E+03-1.36295131E+00 4.03587050E+00 8.77294868E-04 3.07100100E-05    3
-3.92475650E-08 1.52968690E-11-3.45749283E+03 8.17457231E+00                   4
CH3CHO            BASICPH   4C   2O   1     G   200.000  6000.000 1000.000     1
 5.40411078E+00 1.17230590E-02-4.22631370E-06 6.83724510E-10-4.09848630E-14    2
-2.21874064E+04-3.19252962E+00 4.72945950E+00-3.19328580E-03 4.75349210E-05    3
-5.74586111E-08 2.19311120E-11-2.11671631E+04 4.39127807E+00                   4
C2H5              BASICPH   5C   2          G   200.000  6000.000 1000.000     1
 4.32195633E+00 1.23930542E-02-4.39680960E-06 7.03519915E-10-4.18435239E-14    2
 1.20602692E+04 6.87047533E-01 4.24185905E+00-3.56905235E-03 4.82667202E-05    3
-5.85401008E-08 2.25804514E-11 1.28533561E+04 4.96298142E+00                   4
CH                BASICPH   1C   1          G   200.000  6000.000 1000.000     1
 2.52093690E+00 1.76536390E-03-4.61476600E-07 5.92896752E-11-3.34745010E-15    2
 7.11812323E+04 7.42147977E+00 3.48975830E+00 3.24321600E-04-1.68997510E-06    3
 3.16284200E-09-1.40618030E-12 7.08471100E+04 2.10058095E+00                   4
O2                BASICPO   2               G   200.000  6000.000 1000.000     1
 3.66096065E+00 6.56365813E-04-1.41149627E-07 2.05797935E-11-1.29913436E-15    2
-1.21597718E+03 3.43103144E+00 3.78245636E+00-2.99673416E-03 9.84730201E-06    3
-9.68129509E-09 3.24372837E-12-1.06394357E+03 3.67334437E+00                   4
CH4               BASICPH   4C   1          G   200.000  6000.000 1000.000     1
 1.91178600E+00 9.60267962E-03-3.38387841E-06 5.38797242E-10-3.19306807E-14    2
-1.01053458E+04 8.50251099E+00 5.14825733E+00-1.37002410E-02 4.93749414E-05    3
-4.91952339E-08 1.70097299E-11-1.02514544E+04-4.61313503E+00                   4
C2H2              BASICPH   2C   2          G   200.000  6000.000 1000.000     1
 4.65878489E+00 4.88396667E-03-1.60828888E-06 2.46974544E-10-1.38605959E-14    2
 2.56010945E+04-3.99225217E+00 8.08679684E-01 2.33615762E-02-3.55172234E-05    3
 2.80152958E-08-8.50075163E-12 2.62706710E+04 1.39458058E+01                   4
C2H6              BASICPH   6C   2          G   200.000  6000.000 1000.000     1
 4.04666411E+00 1.53538802E-02-5.47039483E-06 8.77826543E-10-5.23167532E-14    2
-1.24536417E+04-9.47685398E-01 4.29142572E+00-5.50154901E-03 5.99438460E-05    3
-7.08466469E-08 2.68685836E-11-1.15284973E+04 2.68780283E+00                   4
C2H4              BASICPH   4C   2          G   200.000  6000.000 1000.000     1
 3.99182724E+00 1.04833908E-02-3.71721342E-06 5.94628365E-10-3.53630386E-14    2
 4.24884251E+03-2.35858694E-01 3.95920063E+00-7.57051374E-03 5.70989993E-05    3
-6.91588353E-08 2.69884190E-11 5.06995999E+03 4.13052516E+00                   4
C2H5O2            BASICPH   5C   2O   2     G   200.000  6000.000 1000.000     1
 8.88872430E+00 1.35833179E-02-4.91116949E-06 7.92343360E-10-4.73525704E-14    2
-4.34149657E+03-1.77708259E+01 4.50099327E+00 6.87965340E-03 4.74143971E-05    3
-6.92287127E-08 2.87395324E-11-2.29590179E+03 9.22305833E+00                   4
C2H3              BASICPH   3C   2          G   200.000  6000.000 1000.000     1
 4.15026763E+00 7.54021343E-03-2.62997847E-06 4.15974048E-10-2.45407509E-14    2
 3.42611990E+04 1.77385468E+00 3.36377642E+00 2.65765722E-04 2.79620704E-05    3
-3.72986942E-08 1.51590176E-11 3.48795198E+04 7.96083325E+00                   4
C2H5O2H           BASICPH   6C   2O   2     G   200.000  6000.000 1000.000     1
 9.58691077E+00 1.48603589E-02-5.29787965E-06 8.47317148E-10-5.03436325E-14    2
-2.41832786E+04-2.19310539E+01 4.14672004E+00 9.78668135E-03 4.91492257E-05    3
-7.42532075E-08 3.11169441E-11-2.18136106E+04 1.07402635E+01                   4
C2H3O2N           BASICPH   3C   2N   1O   2G   200.000  3000.000 2900.000     1
 7.04978026E-01 2.14011186E-02-8.51009189E-06 1.14307151E-09 0.00000000E+00    2
-2.07271477E+04 2.72338473E+01 7.04978026E-01 2.14011186E-02-8.51009189E-06    3
 1.14307151E-09 0.00000000E+00-2.07271477E+04 2.72338473E+01                   4
CH3O2             BASICPH   3C   1O   2     G   200.000  6000.000 1000.000     1
 5.55530485E+00 9.12236137E-03-3.23851661E-06 5.18713798E-10-3.08834151E-14    2
-1.06191829E+03-2.63066335E+00 4.97169544E+00-5.29356559E-03 4.77334149E-05    3
-5.77065615E-08 2.22219969E-11-1.55246470E+02 4.17593384E+00                   4
CH3O2H            BASICPH   4C   1O   2     G   200.000  6000.000 1000.000     1
 7.76538059E+00 8.61499710E-03-2.98006935E-06 4.68638071E-10-2.75339255E-14    2
-1.87665688E+04-1.40962962E+01 2.90540897E+00 1.74994735E-02 5.28243630E-06    3
-2.52827275E-08 1.34368212E-11-1.73580336E+04 1.16771689E+01                   4
C2H5O             BASICPH   5C   2O   1     G   200.000  6000.000 1000.000     1
 6.55053879E+00 1.32525511E-02-4.74726060E-06 7.64699227E-10-4.57008357E-14    2
-6.46622736E+03-7.70036108E+00 3.26905655E+00 9.33562906E-03 2.96317166E-05    3
-4.53411341E-08 1.88795595E-11-4.94453692E+03 1.23320446E+01                   4
CH3CO3H           BASICPH   4C   2O   3     G   300.000  5000.000 1674.000     1
 1.35609574E+01 7.78841515E-03-2.96586103E-06 4.96085705E-10-3.03469045E-14    2
-4.23251725E+04-4.26954320E+01 1.65316759E+00 3.65334822E-02-2.81276113E-05    3
 1.00222566E-08-1.35327655E-12-3.85462097E+04 2.05329632E+01                   4
CH3CO3            BASICPH   3C   2O   3     G   300.000  5000.000 1398.000     1
 1.31978403E+01 4.90134454E-03-1.78549857E-06 2.89115041E-10-1.72726576E-14    2
-2.40706656E+04-3.92894496E+01 2.18612285E+00 3.03921759E-02-2.33009458E-05    3
 8.03926098E-09-9.99024784E-13-2.03430339E+04 1.97339860E+01                   4
CH3CO2            BASICPH   3C   2O   2     G   200.000  3000.000 2900.000     1
 1.80272952E+00 1.87121310E-02-9.16471434E-06 1.72719616E-09 0.00000000E+00    2
-1.98224737E+04 2.18049590E+01 1.80272952E+00 1.87121310E-02-9.16471434E-06    3
 1.72719616E-09 0.00000000E+00-1.98224737E+04 2.18049590E+01                   4
C2H               BASICPH   1C   2          G   200.000  6000.000 1000.000     1
 3.66270248E+00 3.82492252E-03-1.36632500E-06 2.13455040E-10-1.23216848E-14    2
 6.69935328E+04 3.94560402E+00 2.89867676E+00 1.32988489E-02-2.80733327E-05    3
 2.89484755E-08-1.07502351E-11 6.68867588E+04 6.20902237E+00                   4
CH2OH             BASICPH   3C   1O   1     G   200.000  6000.000 1000.000     1
 5.09312035E+00 5.94758549E-03-2.06496524E-06 3.23006703E-10-1.88125052E-14    2
-3.50012672E+03-1.85634034E+00 4.47832317E+00-1.35069687E-03 2.78483707E-05    3
-3.64867397E-08 1.47906775E-11-2.96676176E+03 3.29968544E+00                   4
C2H2O             BASICPH   2C   2O   1     G   200.000  3000.000 2900.000     1
 2.44728086E+00 5.58946864E-03 2.26600080E-06-1.63152057E-09 0.00000000E+00    2
 2.62927989E+04 1.65311449E+01 2.44728086E+00 5.58946864E-03 2.26600080E-06    3
-1.63152057E-09 0.00000000E+00 2.62927989E+04 1.65311449E+01                   4
N2                BASICPN   2               G   200.000  6000.000 1000.000     1
 2.95257637E+00 1.39690040E-03-4.92631603E-07 7.86010194E-11-4.60755204E-15    2
-9.23948688E+02 5.86937802E+00 3.53100528E+00-1.23660988E-04-5.02999433E-07    3
 2.43530612E-09-1.40881235E-12-1.04697628E+03 2.96496079E+00                   4
C3H8              BASICPH   8C   3          G   200.000  6000.000 1000.000     1
 6.66919762E+00 2.06108751E-02-7.36512348E-06 1.18434262E-09-7.06914631E-14    2
-1.61836214E+04-1.32211771E+01 4.21093013E+00 1.70886504E-03 7.06530166E-05    3
-9.20060563E-08 3.64618453E-11-1.42893032E+04 5.58320529E+00                   4
C3H7              BASICPH   7C   3          G   200.000  6000.000 1000.000     1
 6.49636581E+00 1.77337992E-02-6.24898046E-06 9.95389494E-10-5.90199768E-14    2
 8.45701741E+03-9.15544676E+00 4.08211458E+00 5.23240341E-03 5.13554466E-05    3
-6.99343600E-08 2.81819493E-11 1.00047343E+04 7.80379967E+00                   4
C3H7O2            BASICPH   7C   3O   2     G   200.000  6000.000 1000.000     1
 9.24489758E+00 2.14800809E-02-7.69335772E-06 1.23945160E-09-7.40911693E-14    2
-6.86951973E+03-1.75032678E+01 6.99488956E+00-7.50355090E-03 1.01250579E-04    3
-1.25012534E-07 4.84675978E-11-4.58768289E+03 2.49947319E+00                   4
C3H7O2H           BASICPH   8C   3O   2     G   200.000  6000.000 1000.000     1
 1.04115631E+01 2.13763889E-02-7.55819868E-06 1.20207180E-09-7.11798089E-14    2
-2.51881192E+04-2.48510931E+01 7.08977754E+00-4.86163264E-03 1.03253531E-04    3
-1.33200956E-07 5.30799251E-11-2.27140302E+04 4.40378298E-01                   4
C3H7O             BASICPH   7C   3O   1     G   200.000  6000.000 1000.000     1
 8.38041158E+00 1.95206120E-02-6.97374143E-06 1.12144919E-09-6.69467830E-14    2
-7.49359677E+03-1.62951120E+01 4.21934640E+00 7.38556643E-03 6.02825527E-05    3
-8.38680246E-08 3.39623435E-11-5.24226311E+03 1.07779085E+01                   4
C2H5CHO           BASICPH   6C   3O   1     G   200.000  6000.000 1000.000     1
 7.44085690E+00 1.77301764E-02-6.34081568E-06 1.02040803E-09-6.09461712E-14    2
-2.64974534E+04-1.25507992E+01 4.24529681E+00 6.68296705E-03 4.93337933E-05    3
-6.71986122E-08 2.67262347E-11-2.46391727E+04 8.77613097E+00                   4
C2H5CO            BASICPH   5C   3O   1     G   200.000  6000.000 1000.000     1
 6.52325448E+00 1.54211952E-02-5.50898155E-06 8.85889860E-10-5.28846397E-14    2
-8.28335486E+03-5.73573618E+00 6.25722402E+00-9.17612184E-03 7.61190491E-05    3
-9.05514998E-08 3.46198215E-11-7.00320326E+03 1.69619217E+00                   4
C3H6O2H           BASICPH   7C   3O   2     G   200.000  6000.000 1000.000     1
 9.24489758E+00 2.14800809E-02-7.69335772E-06 1.23945160E-09-7.40911693E-14    2
-9.07419862E+02-1.75032678E+01 6.99488956E+00-7.50355090E-03 1.01250579E-04    3
-1.25012534E-07 4.84675978E-11 1.37441698E+03 2.49947319E+00                   4
O2C3H6O2H         BASICPH   7C   3O   4     G   200.000  3000.000 2900.000     1
 5.63982421E-02 4.63810079E-02-2.39360182E-05 4.80996436E-09 0.00000000E+00    2
-1.20280208E+04 4.04448460E+01 5.63982421E-02 4.63810079E-02-2.39360182E-05    3
 4.80996436E-09 0.00000000E+00-1.20280208E+04 4.04448460E+01                   4
C3H6              BASICPH   6C   3          G   200.000  6000.000 1000.000     1
 6.03870234E+00 1.62963931E-02-5.82130801E-06 9.35936829E-10-5.58603141E-14    2
-6.89796450E+02-8.38395882E+00 3.83464468E+00 3.29078952E-03 5.05228001E-05    3
-6.66251176E-08 2.63707473E-11 8.40635710E+02 7.58838119E+00                   4
C3H5              BASICPH   5C   3          G   200.000  6000.000 1000.000     1
 6.05091412E+00 1.34052084E-02-4.73450586E-06 7.55380898E-10-4.48421084E-14    2
 2.18241094E+04-7.64321113E+00 3.33277282E+00 1.06102499E-02 2.17559727E-05    3
-3.47145235E-08 1.44476835E-11 2.30785414E+04 8.88293302E+00                   4
OHOH              BASICPH   2O   2          G   200.000  6000.000 1000.000     1
 4.57977305E+00 4.05326003E-03-1.29844730E-06 1.98211400E-10-1.13968792E-14    2
 7.80218477E+03 6.80511573E-01 4.31515149E+00-8.47390622E-04 1.76404323E-05    3
-2.26762944E-08 9.08950159E-12 8.10261854E+03 3.28927407E+00                   4
C3H5O2            BASICPH   5C   3O   2     G   300.000  5000.000 2029.000     1
 1.21747468E+01 1.17224573E-02-4.37865777E-06 7.23159158E-10-4.38507032E-14    2
 5.42085033E+03-3.40705180E+01 3.86799170E+00 2.80503610E-02-1.46541282E-05    3
 2.76816212E-09-2.03664575E-14 8.44975241E+03 1.14162996E+01                   4
C3H5O2H           BASICPH   6C   3O   2     G   300.000  5000.000 1371.000     1
 1.58202563E+01 1.05100003E-02-3.76442782E-06 6.02757537E-10-3.57314657E-14    2
-1.43716922E+04-5.67171483E+01 2.53928211E+00 3.89304698E-02-2.59032454E-05    3
 7.96581813E-09-8.97538604E-13-9.52509164E+03 1.54936689E+01                   4
C3H5O             BASICPH   5C   3O   1     G   300.000  5000.000 1365.000     1
 1.15266381E+01 1.13248881E-02-4.59478147E-06 7.92552773E-10-4.92896007E-14    2
 3.65089990E+03-3.63030431E+01 4.13472839E+00 1.62912670E-02 4.05387649E-06    3
-8.58066880E-09 2.35221332E-12 7.64108076E+03 8.08422341E+00                   4
C4H10      6/23/15 THERMC   4H  10    0    0G   300.000  5000.000 1394.000    11
 1.22380710E+01 2.16404026E-02-7.14571018E-06 1.08337835E-09-6.18237057E-14    2
-2.16902547E+04-3.97553309E+01-8.02955592E-01 4.99015510E-02-2.95964709E-05    3
 8.75995601E-09-9.94700282E-13-1.69629130E+04 3.10273998E+01                   4
C4H9       6/23/15 THERMC   4H   9    0    0G   300.000  5000.000 1673.000    11
 9.84711488E+00 2.24398464E-02-7.77861236E-06 1.22462417E-09-7.19042764E-14    2
 2.83050910E+03-2.31908895E+01 8.16022091E-01 3.82088719E-02-1.48095548E-05    3
 6.66100581E-10 5.59187009E-13 6.28533505E+03 2.69350204E+01                   4
C4H10O2    6/23/15 THERMC   4H  10O   2    0G   300.000  5000.000 1411.000    11
 1.64773463E+01 2.32837731E-02-7.73346869E-06 1.17639438E-09-6.72636115E-14    2
-3.54039143E+04-5.65851351E+01 1.10674271E+00 6.20398818E-02-4.58029997E-05    3
 1.83814671E-08-3.05760518E-12-3.03522935E+04 2.49476403E+01                   4
C4H9O2     6/23/15 THERMC   4H   9O   2    0G   300.000  5000.000 1404.000    11
 1.43954406E+01 2.27464522E-02-7.59780511E-06 1.16008418E-09-6.65012234E-14    2
-1.63436901E+04-4.38820228E+01 2.05173283E+00 5.31039562E-02-3.71894337E-05    3
 1.46756381E-08-2.47331317E-12-1.21378283E+04 2.19871738E+01                   4
C4H8O      6/23/15 THERMC   4H   8O   1    0G   300.000  5000.000 1406.000    01
 1.24821588E+01 1.97517332E-02-6.58174463E-06 1.00368418E-09-5.74970034E-14    2
-3.20403923E+04-3.80548131E+01-4.24948418E-01 5.00897138E-02-3.38085546E-05    3
 1.20944876E-08-1.78513081E-12-2.75914826E+04 3.11711451E+01                   4
C4H7O      6/23/15 THERMC   4H   7O   1    0G   300.000  5000.000 1407.000    01
 1.30449136E+01 1.68525438E-02-5.60976146E-06 8.54892862E-10-4.89519301E-14    2
-1.06700029E+04-4.19890141E+01-8.29477364E-01 5.30397288E-02-4.23645011E-05    3
 1.79753295E-08-3.10235986E-12-6.24902542E+03 3.11508248E+01                   4
C4H10O     6/23/15 THERMC   4H  10O   1    0G   300.000  5000.000 1387.000    01
 1.53172615E+01 2.17968684E-02-7.16786605E-06 1.08447751E-09-6.18211452E-14    2
-4.31981171E+04-5.37850567E+01-2.34030953E-01 5.46237372E-02-3.15328153E-05    3
 8.22504425E-09-6.45453592E-13-3.75408314E+04 3.08213732E+01                   4
C4H9O      6/23/15 THERMC   4H   9O   1    0G   300.000  5000.000 1404.000    01
 1.43183360E+01 1.97984028E-02-6.40953902E-06 9.58701901E-10-5.41909101E-14    2
-1.62115359E+04-4.73639189E+01-8.45374774E-01 5.77256146E-02-4.27926931E-05    3
 1.68135441E-08-2.69125980E-12-1.12629795E+04 3.30735937E+01                   4
C4H8       6/23/15 THERMC   4H   8    0    0G   300.000  5000.000 1385.000    11
 1.06918969E+01 1.83718685E-02-6.12698818E-06 9.35309352E-10-5.36334855E-14    2
-7.22999443E+03-3.09131118E+01 4.99223711E-01 3.84367892E-02-1.96059487E-05    3
 4.21968641E-09-1.80623101E-13-3.31280752E+03 2.51612963E+01                   4
C4H7       6/23/15 THERMC   4H   7    0    0G   300.000  5000.000 1527.000    11
 1.00702639E+01 1.64929813E-02-5.51739926E-06 8.44718742E-10-4.85598229E-14    2
 1.63564183E+04-2.45698629E+01 2.37694193E+00 2.55665049E-02-2.75496217E-06    3
-5.77599935E-09 1.96914270E-12 1.98958789E+04 1.98697042E+01                   4
C5H12      7/ 2/15 THERMC   5H  12    0    0G   300.000  5000.000 1393.000    21
 1.54997059E+01 2.59539502E-02-8.60573898E-06 1.30853452E-09-7.48279833E-14    2
-2.58131529E+04-5.58443571E+01-1.07615442E+00 6.22707765E-02-3.79787158E-05    3
 1.16541577E-08-1.39779830E-12-1.98438319E+04 3.39846980E+01                   4
C5H11      7/ 2/15 THERMC   5H  11    0    0G   300.000  5000.000 1675.000    21
 1.29600953E+01 2.70767596E-02-9.41149430E-06 1.48458218E-09-8.72912659E-14    2
-1.19302232E+03-3.84357572E+01 4.33473917E-01 5.07207402E-02-2.27178349E-05    3
 3.01397795E-09 3.02497823E-13 3.42750166E+03 3.04562892E+01                   4
C5H12O2    7/ 2/15 THERMC   5H  12O   2    0G   300.000  5000.000 1407.000    21
 1.96343394E+01 2.77954022E-02-9.28420048E-06 1.41790083E-09-8.13043571E-14    2
-3.94972204E+04-7.21104861E+01 9.06288840E-01 7.41320807E-02-5.38978679E-05    3
 2.12072794E-08-3.46714590E-12-3.32449891E+04 2.75609065E+01                   4
C5H11O2    7/ 2/15 THERMC   5H  11O   2    0G   300.000  5000.000 1402.000    21
 1.75466334E+01 2.72451014E-02-9.14036729E-06 1.39995100E-09-8.04323571E-14    2
-2.04287591E+04-5.93583880E+01 1.94105108E+00 6.48247115E-02-4.47663475E-05    3
 1.71862079E-08-2.81312813E-12-1.50447660E+04 2.41793265E+01                   4
C5H10O     7/ 2/15 THERMC   5H  10O   1    0G   300.000  5000.000 1403.000    11
 1.56169094E+01 2.43024689E-02-8.14997894E-06 1.24830545E-09-7.17335309E-14    2
-3.61262654E+04-5.34579169E+01-6.14208683E-01 6.21440995E-02-4.18732955E-05    3
 1.49220127E-08-2.19884989E-12-3.04861024E+04 3.37305627E+01                   4
C5H9O      7/ 2/15 THERMC   5H   9O   1    0G   300.000  5000.000 1404.000    11
 1.61774088E+01 2.14010829E-02-7.17634766E-06 1.09916578E-09-6.31645435E-14    2
-1.47545169E+04-5.73775816E+01-1.02021968E+00 6.50951562E-02-5.04356052E-05    3
 2.08080638E-08-3.51731075E-12-9.14320323E+03 3.37186152E+01                   4
C5H12O     7/ 2/15 THERMC   5H  12O   1    0G   300.000  5000.000 1395.000    11
 1.84198867E+01 2.58539394E-02-8.45705100E-06 1.27470135E-09-7.24663472E-14    2
-4.71392542E+04-6.86676811E+01-7.04447424E-01 6.83973504E-02-4.29551501E-05    3
 1.31875327E-08-1.50617457E-12-4.04023829E+04 3.46013735E+01                   4
C5H11O     7/ 2/15 THERMC   5H  11O   1    0G   300.000  5000.000 1402.000    11
 1.75717866E+01 2.41215702E-02-7.87292861E-06 1.18434790E-09-6.72211661E-14    2
-2.03298634E+04-6.34042890E+01-1.12046991E+00 7.01049732E-02-5.11912028E-05    3
 1.97171941E-08-3.09604193E-12-1.41436577E+04 3.60393179E+01                   4
C5H10      7/ 2/15 THERMC   5H  10    0    0G   300.000  5000.000 1391.000    11
 1.39482659E+01 2.26174383E-02-7.46150437E-06 1.13083687E-09-6.45242651E-14    2
-1.12323060E+04-4.67400905E+01-8.33165560E-01 5.52809989E-02-3.41930186E-05    3
 1.07062907E-08-1.32071075E-12-5.94320391E+03 3.32559639E+01                   4
C5H9       7/ 2/15 THERMC   5H   9    0    0G   300.000  5000.000 1671.000    11
 1.14758793E+01 2.34742926E-02-8.11135670E-06 1.27442695E-09-7.47284228E-14    2
 1.33646063E+04-2.96386829E+01 6.71098641E-01 4.41234207E-02-2.00602641E-05    3
 2.87505510E-09 2.06967984E-13 1.73207352E+04 2.96844423E+01                   4
C6H14      6/28/15 THERMC   6H  14    0    0G   300.000  5000.000 1393.000    31
 1.87627673E+01 3.02658015E-02-1.00651504E-05 1.53359648E-09-8.78270250E-14    2
-2.99368202E+04-7.19417751E+01-1.34614386E+00 7.46255062E-02-4.63389148E-05    3
 1.45347241E-08-1.79794865E-12-2.27252326E+04 3.69271671E+01                   4
C6H13      6/28/15 THERMC   6H  13    0    0G   300.000  5000.000 2009.000    31
 1.58820225E+01 3.15082735E-02-1.08873748E-05 1.71061819E-09-1.00308003E-13    2
-5.06440957E+03-5.23312216E+01-5.23690502E-02 6.42747993E-02-3.32766942E-05    3
 7.23891229E-09-3.67652189E-13 5.74046943E+02 3.43574044E+01                   4
C6H14O2    6/28/15 THERMC   6H  14O   2    0G   300.000  5000.000 1405.000    31
 2.27945733E+01 3.23023588E-02-1.08330103E-05 1.65908356E-09-9.53255531E-14    2
-4.35919919E+04-8.76543627E+01 7.09066321E-01 8.62088779E-02-6.19676403E-05    3
 2.40163379E-08-3.87283757E-12-3.61381540E+04 3.01593788E+01                   4
C6H13O2    6/28/15 THERMC   6H  13O   2    0G   300.000  5000.000 1401.000    31
 2.07064679E+01 3.17410986E-02-1.06830728E-05 1.63995196E-09-9.43758723E-14    2
-2.45185697E+04-7.48877934E+01 1.81377847E+00 7.66285714E-02-5.24600320E-05    3
 1.97676903E-08-3.16867465E-12-1.79495519E+04 2.64458243E+01                   4
C6H12O     6/28/15 THERMC   6H  12O   1    0G   300.000  5000.000 1401.000    21
 1.87637726E+01 2.88337122E-02-9.70978795E-06 1.49145969E-09-8.58792582E-14    2
-4.02169024E+04-6.89289726E+01-8.02753686E-01 7.41890648E-02-4.99119184E-05    3
 1.77250414E-08-2.60574786E-12-3.33807024E+04 3.62877559E+01                   4
C6H11O     6/28/15 THERMC   6H  11O   1    0G   300.000  5000.000 1402.000    21
 1.93314094E+01 2.59396874E-02-8.74142643E-06 1.34340858E-09-7.73838519E-14    2
-1.88489368E+04-7.28945027E+01-1.23607226E+00 7.72775455E-02-5.86567108E-05    3
 2.37149712E-08-3.94575987E-12-1.20343524E+04 3.63976586E+01                   4
C6H14O     6/28/15 THERMC   6H  14O   1    0G   300.000  5000.000 1401.000    21
 2.10348564E+01 3.01123052E-02-9.76863630E-06 1.46352112E-09-8.28312803E-14    2
-5.07799593E+04-8.04955285E+01-1.48462317E+00 8.43725255E-02-5.94054450E-05    3
 2.19208001E-08-3.28249321E-12-4.32320299E+04 3.96818336E+01                   4
C6H13O     6/28/15 THERMC   6H  13O   1    0G   300.000  5000.000 1400.000    21
 2.08292000E+01 2.84399858E-02-9.33460834E-06 1.40973659E-09-8.02373215E-14    2
-2.44503546E+04-7.94681045E+01-1.39281135E+00 8.24710710E-02-5.95688464E-05    3
 2.26079306E-08-3.49811852E-12-1.70247275E+04 3.89924876E+01                   4
C6H12      6/28/15 THERMC   6H  12    0    0G   300.000  5000.000 1394.000    31
 1.77199340E+01 2.66648892E-02-8.95021964E-06 1.37223375E-09-7.89265145E-14    2
-1.40857978E+04-6.64777823E+01-1.53717926E+00 7.07292229E-02-4.71971327E-05    3
 1.63762358E-08-2.32712149E-12-7.31727643E+03 3.72525483E+01                   4
C6H11      6/28/15 THERMC   6H  11    0    0G   300.000  5000.000 1380.000    31
 1.72248316E+01 2.41408519E-02-8.00874977E-06 1.21917347E-09-6.98056225E-14    2
 9.55302409E+03-6.05812759E+01-1.36418267E-01 6.02165552E-02-3.43175087E-05    3
 8.76562654E-09-6.63538877E-13 1.59594290E+04 3.41319461E+01                   4
C7H16      6/23/15 THERMC   7H  16    0    0G   300.000  5000.000 1392.000    41
 2.20265181E+01 3.45768474E-02-1.15242742E-05 1.75861536E-09-1.00823716E-13    2
-3.40608650E+04-8.80432594E+01-1.61450781E+00 8.69729339E-02-5.46880747E-05    3
 1.74085014E-08-2.19663829E-12-2.56068783E+04 3.98621183E+01                   4
C7H15      6/23/15 THERMC   7H  15    0    0G   300.000  5000.000 1376.000    41
 2.16590332E+01 3.20819848E-02-1.06238280E-05 1.61521945E-09-9.23985254E-14    2
-1.05290090E+04-8.30103508E+01-5.65543686E-02 7.54440083E-02-3.97619935E-05    3
 8.39043167E-09-2.13023668E-13-2.34732030E+03 3.60697380E+01                   4
C7H16O2    6/28/15 THERMC   7H  16O   2    0G   300.000  5000.000 1406.000    31
 2.55755583E+01 3.72130886E-02-1.24464422E-05 1.90266958E-09-1.09178532E-13    2
-4.74839171E+04-1.00947014E+02 4.10038256E-01 9.88639334E-02-7.11405060E-05    3
 2.76456871E-08-4.46900793E-12-3.90184527E+04 3.32076486E+01                   4
C7H15O2    6/28/15 THERMC   7H  15O   2    0G   300.000  5000.000 1402.000    31
 2.34700339E+01 3.66805125E-02-1.23090317E-05 1.88573404E-09-1.08365440E-13    2
-2.84040230E+04-8.80835721E+01 1.50853528E+00 8.93184543E-02-6.17020182E-05    3
 2.34524189E-08-3.77926391E-12-2.08290374E+04 2.95217330E+01                   4
C7H14O     6/28/15 THERMC   7H  14O   1    0G   300.000  5000.000 1400.000    31
 2.19167390E+01 3.33551285E-02-1.12653472E-05 1.73387370E-09-9.99791580E-14    2
-4.43099010E+04-8.44341620E+01-9.89396895E-01 8.62231747E-02-5.79288205E-05    3
 2.05106493E-08-3.00812507E-12-3.62755466E+04 3.88365294E+01                   4
C7H13O     6/28/15 THERMC   7H  13O   1    0G   300.000  5000.000 1401.000    31
 2.24858267E+01 3.04588574E-02-1.02960137E-05 1.58565241E-09-9.14731588E-14    2
-2.29425043E+04-8.84079034E+01-1.42573443E+00 8.93241701E-02-6.66904810E-05    3
 2.65098161E-08-4.34995824E-12-1.49287211E+04 3.89605734E+01                   4
C7H16O     6/28/15 THERMC   7H  16O   1    0G   300.000  5000.000 1399.000    31
 2.41810892E+01 3.44035676E-02-1.11953826E-05 1.68089229E-09-9.52797356E-14    2
-5.48148927E+04-9.58169498E+01-1.82373019E+00 9.73052733E-02-6.91609831E-05    3
 2.58375743E-08-3.92978163E-12-4.61081177E+04 4.28991227E+01                   4
C7H15O     6/28/15 THERMC   7H  15O   1    0G   300.000  5000.000 1398.000    31
 2.40871886E+01 3.27579955E-02-1.07962543E-05 1.63513727E-09-9.32550496E-14    2
-2.85712558E+04-9.55354825E+01-1.66327367E+00 9.48294117E-02-6.79358331E-05    3
 2.54927672E-08-3.89905377E-12-1.99060958E+04 4.19368399E+01                   4
C7H14      6/28/15 THERMC   7H  14    0    0G   300.000  5000.000 1393.000    41
 2.09857918E+01 3.09725900E-02-1.04079778E-05 1.59702721E-09-9.19098751E-14    2
-1.82113193E+04-8.25922411E+01-1.80230803E+00 8.30540244E-02-5.55073560E-05    3
 1.92242661E-08-2.71999666E-12-1.01991768E+04 4.01742981E+01                   4
C7H13      6/28/15 THERMC   7H  13    0    0G   300.000  5000.000 1382.000    41